Circuit: * D:\2025\AudioAmp_EQ\Analog\3_Band_EQ_60W_Amp\SPICE_circuits\Preamp + Poweramp.asc

Warning: Multiple definitions of model "2n3906" Type: BJT
Warning: Multiple definitions of model "2n3904" Type: BJT
Direct Newton iteration for .op point succeeded.

Date: Thu Jun 26 22:03:30 2025
Total elapsed time: 0.262 seconds.

tnom = 27
temp = 27
method = modified trap
totiter = 23941
traniter = 23930
tranpoints = 7698
accept = 5360
rejected = 2338
matrix size = 47
fillins = 41
solver = Normal
Matrix Compiler1: 6.27 KB object code size  1.3/0.7/[0.6]
Matrix Compiler2: 5.18 KB object code size  0.5/0.7/[0.5]

