Circuit: * D:\2025\AudioAmp_EQ\Analog\3_Band_EQ_60W_Amp\SPICE_circuits\stereo_to_mono.asc

WARNING: Less than two connections to node -25V.  This node is used by V3.
WARNING: Less than two connections to node +25V.  This node is used by V4.
Early termination of direct N-R iteration.
Direct Newton iteration failed to find .op point.  (Use ".option noopiter" to skip.)
Starting Gmin stepping
Gmin = 10
vernier = 0.5
vernier = 0.25
vernier = 0.125
Gmin = 5.49741
vernier = 0.0625
vernier = 0.03125
vernier = 0.015625
vernier = 0.0078125
Gmin = 5.51716
vernier = 0.00390625
vernier = 0.00195313
vernier = 0.000976563
vernier = 0.000488281
Gmin = 5.50104
Gmin = 0
Gmin stepping failed

Starting source stepping with srcstepmethod=0
Source Step = 3.0303%
Source Step = 33.3333%
Source Step = 63.6364%
Source Step = 93.9394%
Source stepping succeeded in finding the operating point.


Date: Thu Jun 26 22:04:58 2025
Total elapsed time: 20.918 seconds.

tnom = 27
temp = 27
method = modified trap
totiter = 8608
traniter = 6932
tranpoints = 3467
accept = 2353
rejected = 1114
matrix size = 375
fillins = 11385
solver = Normal
Thread vector: 93.0/57.6[9] 17.2/8.8[9] 35.2/16.6[9] 11.4/18.2[1]  2592/500
Matrix Compiler1: 5.34 MB object code size  1057.3/496.1/[287.3]
Matrix Compiler2: 230.97 KB object code size  145.0/106.4/[40.2]

